*HEADING
Twisted beam example
*PART, NAME=part1
*END PART
*ASSEMBLY, NAME=ASSEM1
*INSTANCE, NAME=INSTNC1, PART=PART1
*NODE
1,0.00000e+00,-5.50000e-01,-1.60000e-01
2,3.00000e+00,-4.46904e-01,-3.58297e-01
3,6.00000e+00,-2.75772e-01,-5.02046e-01
4,9.00000e+00,-6.26552e-02,-5.69363e-01
5,1.20000e+01,1.60000e-01,-5.50000e-01
6,0.00000e+00,0.00000e+00,-1.60000e-01
7,3.00000e+00,6.12293e-02,-1.47821e-01
8,6.00000e+00,1.13137e-01,-1.13137e-01
9,9.00000e+00,1.47821e-01,-6.12293e-02
10,1.20000e+01,1.60000e-01,-9.79717e-18
11,0.00000e+00,5.50000e-01,-1.60000e-01
12,3.00000e+00,5.69363e-01,6.26552e-02
13,6.00000e+00,5.02046e-01,2.75772e-01
14,9.00000e+00,3.58297e-01,4.46904e-01
15,1.20000e+01,1.60000e-01,5.50000e-01
16,0.00000e+00,-5.50000e-01,0.00000e+00
17,3.00000e+00,-5.08134e-01,-2.10476e-01
18,6.00000e+00,-3.88909e-01,-3.88909e-01
19,9.00000e+00,-2.10476e-01,-5.08134e-01
20,1.20000e+01,-3.36778e-17,-5.50000e-01
** ... 25 like lines cut
*ELEMENT, TYPE =c3d8rh, ELSET=AllElements
1,1,2,7,6,16,17,22,21
2,16,17,22,21,31,32,37,36
3,6,7,12,11,21,22,27,26
4,21,22,27,26,36,37,42,41
5,2,3,8,7,17,18,23,22
6,17,18,23,22,32,33,38,37
7,7,8,13,12,22,23,28,27
8,22,23,28,27,37,38,43,42
9,3,4,9,8,18,19,24,23
10,18,19,24,23,33,34,39,38
11,8,9,14,13,23,24,29,28
12,23,24,29,28,38,39,44,43
13,4,5,10,9,19,20,25,24
14,19,20,25,24,34,35,40,39
15,9,10,15,14,24,25,30,29
16,24,25,30,29,39,40,45,44
*ELEMENT, TYPE =SFM3D4, ELSET=TractionElements
17,5,10,25,20
18,10,15,30,25
19,20,25,40,35
20,25,30,45,40
*NSET, NSET=l1
1,
6,
11,
16,
21,
26,
31,
36,
41
*ORIENTATION,NAME=GlobalOrientation
1.00000e+00,0.00000e+00,0.00000e+00,0.00000e+00,1.00000e+00,0.00000e+00
1,0.0
*SOLID SECTION,MATERIAL=elasticity,ORIENTATION =GlobalOrientation,ELSET=AllElements, CONTROLS  =Hourglassctl
*SURFACE SECTION, ELSET=TractionElements
*END INSTANCE
*END ASSEMBLY
*MATERIAL,NAME=elasticity
*ELASTIC,TYPE=ISOTROPIC 
2.90000e+07,2.20000e-01
*SECTION CONTROLS, NAME=Hourglassctl,HOURGLASS=ENHANCED
*STEP,PERTURBATION
*STATIC
*BOUNDARY
ASSEM1.INSTNC1.l1,1,1,0.00000e+00
*BOUNDARY
ASSEM1.INSTNC1.l1,2,2,0.00000e+00
*BOUNDARY
ASSEM1.INSTNC1.l1,3,3,0.00000e+00
*DLOAD, follower=NO
ASSEM1.INSTNC1.TractionElements,TRVEC,2.84091e+00,0.00000e+00,0.00000e+00,1.00000e+00
*END STEP
