*HEADING
Vibration modes of unit cube  of almost incompressible material.
**The  first six frequencies are rigid body modes.
**The  first nonzero frequency (7) should be around 0.26 Hz
*PART, NAME=part1
*END PART
*ASSEMBLY, NAME=ASSEM1
*INSTANCE, NAME=INSTNC1, PART=PART1
*NODE
1,0.00000e+00,0.00000e+00,0.00000e+00
2,2.00000e-01,0.00000e+00,0.00000e+00
3,4.00000e-01,0.00000e+00,0.00000e+00
4,6.00000e-01,0.00000e+00,0.00000e+00
5,8.00000e-01,0.00000e+00,0.00000e+00
6,1.00000e+00,0.00000e+00,0.00000e+00
7,0.00000e+00,2.00000e-01,0.00000e+00
8,2.00000e-01,2.00000e-01,0.00000e+00
9,4.00000e-01,2.00000e-01,0.00000e+00
10,6.00000e-01,2.00000e-01,0.00000e+00
11,8.00000e-01,2.00000e-01,0.00000e+00
12,1.00000e+00,2.00000e-01,0.00000e+00
13,0.00000e+00,4.00000e-01,0.00000e+00
14,2.00000e-01,4.00000e-01,0.00000e+00
15,4.00000e-01,4.00000e-01,0.00000e+00
16,6.00000e-01,4.00000e-01,0.00000e+00
17,8.00000e-01,4.00000e-01,0.00000e+00
18,1.00000e+00,4.00000e-01,0.00000e+00
19,0.00000e+00,6.00000e-01,0.00000e+00
20,2.00000e-01,6.00000e-01,0.00000e+00
** ... 736 like lines cut
**The hybrid form of the serendipity hexahedron is chosen because
**the material is  nearly incompressible.
*ELEMENT, TYPE =C3D20RH, ELSET=AllElements
1,1,2,8,7,37,38,44,43,217,218,219,220,221,222,223,
224,
225,
226,
227,228
2,37,38,44,43,73,74,80,79,221,222,223,224,229,230,231,
232,
233,
234,
235,236
3,73,74,80,79,109,110,116,115,229,230,231,232,237,238,239,
240,
241,
242,
243,244
4,109,110,116,115,145,146,152,151,237,238,239,240,245,246,247,
248,
249,
250,
251,252
** ... 605 like lines cut
*ORIENTATION,NAME=GlobalOrientation
1.00000e+00,0.00000e+00,0.00000e+00,0.00000e+00,1.00000e+00,0.00000e+00
1,0.0
*SOLID SECTION,MATERIAL=elasticity,ORIENTATION =GlobalOrientation,ELSET=AllElements
*END INSTANCE
*END ASSEMBLY
*MATERIAL,NAME=elasticity
*ELASTIC,TYPE=ISOTROPIC 
1.00000e+00,4.99000e-01
*DENSITY 
1.0
*STEP
*FREQUENCY, EIGENSOLVER=LANCZOS
20, , ,-1.E6 

*END STEP
